<?xml version="1.0" encoding="UTF-8"?>

<!-- generated on 2025-12-19T15:32:26.368256-07:00 by Eclipse SUMO netconvert 1.25.0
<netconvertConfiguration xmlns:xsi="http://www.w3.org/2001/XMLSchema-instance" xsi:noNamespaceSchemaLocation="http://sumo.dlr.de/xsd/netconvertConfiguration.xsd">

    <input>
        <osm-files value="map.osm"/>
    </input>

    <output>
        <output-file value="map.net.xml"/>
    </output>

    <projection>
        <proj.utm value="true"/>
    </projection>

    <processing>
        <geometry.remove value="true"/>
        <roundabouts.guess value="true"/>
    </processing>

    <tls_building>
        <tls.discard-simple value="true"/>
        <tls.join value="true"/>
        <tls.guess-signals value="true"/>
    </tls_building>

    <ramp_guessing>
        <ramps.guess value="true"/>
    </ramp_guessing>

    <junctions>
        <junctions.join value="true"/>
    </junctions>

</netconvertConfiguration>
-->

<net version="1.20" junctionCornerDetail="5" limitTurnSpeed="5.50" xmlns:xsi="http://www.w3.org/2001/XMLSchema-instance" xsi:noNamespaceSchemaLocation="http://sumo.dlr.de/xsd/net_file.xsd">

    <location netOffset="-412235.52,-3695933.80" convBoundary="0.00,0.00,3213.84,3336.45" origBoundary="-111.943849,33.399196,-111.909324,33.429229" projParameter="+proj=utm +zone=12 +ellps=WGS84 +datum=WGS84 +units=m +no_defs"/>

    <type id="highway.cycleway" priority="1" numLanes="1" speed="5.56" allow="bicycle" oneway="0" width="2.00"/>
    <type id="highway.footway" priority="1" numLanes="1" speed="2.78" allow="pedestrian" oneway="1" width="2.00"/>
    <type id="highway.path" priority="1" numLanes="1" speed="5.56" allow="pedestrian bicycle" oneway="0" width="2.00"/>
    <type id="highway.pedestrian" priority="1" numLanes="1" speed="2.78" allow="pedestrian" oneway="1" width="2.00"/>
    <type id="highway.primary" priority="12" numLanes="2" speed="27.78" disallow="tram rail_urban rail rail_electric rail_fast ship container cable_car subway aircraft wheelchair scooter drone" oneway="0"/>
    <type id="highway.primary_link" priority="7" numLanes="1" speed="22.22" disallow="tram rail_urban rail rail_electric rail_fast ship container cable_car subway aircraft wheelchair scooter drone" oneway="0"/>
    <type id="highway.residential" priority="3" numLanes="1" speed="13.89" disallow="tram rail_urban rail rail_electric rail_fast ship container cable_car subway aircraft wheelchair scooter drone" oneway="0"/>
    <type id="highway.secondary" priority="11" numLanes="1" speed="27.78" disallow="tram rail_urban rail rail_electric rail_fast ship container cable_car subway aircraft wheelchair scooter drone" oneway="0"/>
    <type id="highway.service" priority="1" numLanes="1" speed="5.56" allow="pedestrian delivery bicycle" oneway="0"/>
    <type id="highway.tertiary" priority="10" numLanes="1" speed="22.22" disallow="tram rail_urban rail rail_electric rail_fast ship container cable_car subway aircraft wheelchair scooter drone" oneway="0"/>
    <type id="highway.unclassified" priority="4" numLanes="1" speed="13.89" disallow="tram rail_urban rail rail_electric rail_fast ship container cable_car subway aircraft wheelchair scooter drone" oneway="0"/>
    <type id="railway.rail" priority="20" numLanes="1" speed="44.44" allow="rail" oneway="1"/>
    <type id="railway.tram" priority="17" numLanes="1" speed="13.89" allow="tram" oneway="1"/>

    <edge id=":10274664602_0" function="internal">
        <lane id=":10274664602_0_0" index="0" allow="pedestrian bicycle" speed="5.56" length="5.00" width="2.00" shape="1574.94,1371.22 1574.92,1366.22"/>
    </edge>
    <edge id=":10274664602_1" function="internal">
        <lane id=":10274664602_1_0" index="0" allow="pedestrian bicycle" speed="2.89" length="2.92" width="2.00" shape="1574.94,1371.22 1575.44,1370.47 1575.94,1370.21 1576.44,1370.46 1576.94,1371.21"/>
    </edge>
    <edge id=":10274664602_2" function="internal">
        <lane id=":10274664602_2_0" index="0" allow="pedestrian bicycle" speed="5.56" length="5.00" width="2.00" shape="1576.92,1366.21 1576.94,1371.21"/>
    </edge>
    <edge id=":10274664602_3" function="internal">
        <lane id=":10274664602_3_0" index="0" allow="pedestrian bicycle" speed="2.89" length="2.92" width="2.00" shape="1576.92,1366.21 1576.42,1366.96 1575.92,1367.21 1575.42,1366.96 1574.92,1366.22"/>
    </edge>
    <edge id=":10281236596_0" function="internal">
        <lane id=":10281236596_0_0" index="0" allow="bicycle" speed="2.89" length="2.92" width="2.00" shape="846.71,1870.62 846.25,1871.39 845.76,1871.67 845.25,1871.44 844.71,1870.72"/>
    </edge>
    <edge id=":10281519129_0" function="internal">
        <lane id=":10281519129_0_0" index="0" allow="tram" speed="13.89" length="3.44" shape="1041.66,1714.78 1045.09,1714.80"/>
    </edge>
    <edge id=":10281519130_0" function="internal">
        <lane id=":10281519130_0_0" index="0" allow="tram" speed="13.89" length="8.01" shape="1048.13,1722.12 1040.13,1722.09"/>
    </edge>
    <edge id=":10281519133_0" function="internal">
        <lane id=":10281519133_0_0" index="0" allow="pedestrian bicycle" speed="2.89" length="2.92" width="2.00" shape="1375.49,1704.94 1374.98,1705.69 1374.48,1705.93 1373.98,1705.67 1373.49,1704.91"/>
    </edge>
    <edge id=":10281519134_0" function="internal">
        <lane id=":10281519134_0_0" index="0" allow="pedestrian bicycle" speed="2.89" length="2.92" width="2.00" shape="1373.35,1733.29 1373.86,1732.55 1374.36,1732.30 1374.86,1732.56 1375.35,1733.32"/>
    </edge>
    <edge id=":10290628421_0" function="internal">
        <lane id=":10290628421_0_0" index="0" disallow="tram rail_urban rail rail_electric rail_fast ship container cable_car subway aircraft wheelchair scooter drone" speed="15.65" length="5.06" shape="1371.87,1708.93 1376.96,1708.94"/>
        <lane id=":10290628421_0_1" index="1" disallow="tram rail_urban rail rail_electric rail_fast ship container cable_car subway aircraft wheelchair scooter drone" speed="15.65" length="5.06" shape="1371.89,1712.13 1376.92,1712.14"/>
    </edge>
    <edge id=":10290628422_0" function="internal">
        <lane id=":10290628422_0_0" index="0" disallow="tram rail_urban rail rail_electric rail_fast ship container cable_car subway aircraft wheelchair scooter drone" speed="15.65" length="5.01" shape="1376.86,1726.96 1371.86,1726.95"/>
        <lane id=":10290628422_0_1" index="1" disallow="tram rail_urban rail rail_electric rail_fast ship container cable_car subway aircraft wheelchair scooter drone" speed="15.65" length="5.01" shape="1376.87,1723.76 1371.86,1723.75"/>
    </edge>
    <edge id=":10307649777_0" function="internal">
        <lane id=":10307649777_0_0" index="0" allow="pedestrian delivery bicycle" speed="3.65" length="4.67" shape="1252.57,1287.64 1251.36,1286.85 1250.96,1286.05 1251.36,1285.25 1252.55,1284.44"/>
    </edge>
    <edge id=":10307649778_0" function="internal">
        <lane id=":10307649778_0_0" index="0" allow="pedestrian delivery bicycle" speed="3.65" length="4.67" shape="1236.13,1275.18 1235.33,1276.38 1234.53,1276.78 1233.73,1276.38 1232.93,1275.18"/>
    </edge>
    <edge id=":10537630745_0" function="internal">
        <lane id=":10537630745_0_0" index="0" allow="pedestrian delivery bicycle" speed="5.56" length="5.07" shape="1651.58,965.83 1646.51,965.84"/>
    </edge>
    <edge id=":10537630745_1" function="internal">
        <lane id=":10537630745_1_0" index="0" allow="pedestrian delivery bicycle" speed="3.65" length="1.44" shape="1651.58,965.83 1650.38,965.04"/>
    </edge>
    <edge id=":10537630745_4" function="internal">
        <lane id=":10537630745_4_0" index="0" allow="pedestrian delivery bicycle" speed="3.65" length="3.23" shape="1650.38,965.04 1649.98,964.24 1650.38,963.44 1651.58,962.63"/>
    </edge>
    <edge id=":10537630745_2" function="internal">
        <lane id=":10537630745_2_0" index="0" allow="pedestrian delivery bicycle" speed="5.56" length="5.07" shape="1646.51,962.64 1651.58,962.63"/>
    </edge>
    <edge id=":10537630745_3" function="internal">
        <lane id=":10537630745_3_0" index="0" allow="pedestrian delivery bicycle" speed="3.65" length="1.44" shape="1646.51,962.64 1647.71,963.44"/>
    </edge>
    <edge id=":10537630745_5" function="internal">
        <lane id=":10537630745_5_0" index="0" allow="pedestrian delivery bicycle" speed="3.65" length="3.23" shape="1647.71,963.44 1648.11,964.24 1647.71,965.04 1646.51,965.84"/>
    </edge>
    <edge id=":10537630748_0" function="internal">
        <lane id=":10537630748_0_0" index="0" allow="pedestrian delivery bicycle" speed="5.56" length="4.73" shape="1651.95,1174.92 1647.22,1175.00"/>
    </edge>
    <edge id=":10537630748_1" function="internal">
        <lane id=":10537630748_1_0" index="0" allow="pedestrian delivery bicycle" speed="3.65" length="1.44" shape="1651.95,1174.92 1650.73,1174.14"/>
    </edge>
    <edge id=":10537630748_4" function="internal">
        <lane id=":10537630748_4_0" index="0" allow="pedestrian delivery bicycle" speed="3.65" length="3.23" shape="1650.73,1174.14 1650.32,1173.34 1650.70,1172.54 1651.89,1171.72"/>
    </edge>
    <edge id=":10537630748_2" function="internal">
        <lane id=":10537630748_2_0" index="0" allow="pedestrian delivery bicycle" speed="5.56" length="4.73" shape="1647.16,1171.80 1651.89,1171.72"/>
    </edge>
    <edge id=":10537630748_3" function="internal">
        <lane id=":10537630748_3_0" index="0" allow="pedestrian delivery bicycle" speed="3.65" length="1.44" shape="1647.16,1171.80 1648.37,1172.58"/>
    </edge>
    <edge id=":10537630748_5" function="internal">
        <lane id=":10537630748_5_0" index="0" allow="pedestrian delivery bicycle" speed="3.65" length="3.23" shape="1648.37,1172.58 1648.79,1173.37 1648.40,1174.18 1647.22,1175.00"/>
    </edge>
    <edge id=":10537630750_0" function="internal">
        <lane id=":10537630750_0_0" index="0" allow="pedestrian delivery bicycle" speed="5.56" length="6.60" shape="1679.82,1200.21 1679.69,1193.61"/>
    </edge>
    <edge id=":10537630750_1" function="internal">
        <lane id=":10537630750_1_0" index="0" allow="pedestrian delivery bicycle" speed="3.65" length="1.44" shape="1679.82,1200.21 1680.60,1198.99"/>
    </edge>
    <edge id=":10537630750_4" function="internal">
        <lane id=":10537630750_4_0" index="0" allow="pedestrian delivery bicycle" speed="3.65" length="3.23" shape="1680.60,1198.99 1681.39,1198.58 1682.20,1198.96 1683.02,1200.14"/>
    </edge>
    <edge id=":10537630750_2" function="internal">
        <lane id=":10537630750_2_0" index="0" allow="pedestrian delivery bicycle" speed="5.56" length="6.60" shape="1682.88,1193.55 1683.02,1200.14"/>
    </edge>
    <edge id=":10537630750_3" function="internal">
        <lane id=":10537630750_3_0" index="0" allow="pedestrian delivery bicycle" speed="3.65" length="1.44" shape="1682.88,1193.55 1682.11,1194.76"/>
    </edge>
    <edge id=":10537630750_5" function="internal">
        <lane id=":10537630750_5_0" index="0" allow="pedestrian delivery bicycle" speed="3.65" length="3.23" shape="1682.11,1194.76 1681.32,1195.18 1680.51,1194.80 1679.69,1193.61"/>
    </edge>
    <edge id=":10537645319_0" function="internal">
        <lane id=":10537645319_0_0" index="0" allow="pedestrian delivery bicycle" speed="5.04" length="5.00" shape="1373.29,1355.67 1371.93,1355.83 1370.95,1356.38 1370.34,1357.33 1370.11,1358.68"/>
    </edge>
    <edge id=":10537645319_1" function="internal">
        <lane id=":10537645319_1_0" index="0" allow="pedestrian delivery bicycle" speed="6.71" length="6.16" shape="1373.29,1355.67 1367.14,1355.43"/>
    </edge>
    <edge id=":10537645319_2" function="internal">
        <lane id=":10537645319_2_0" index="0" allow="pedestrian delivery bicycle" speed="3.65" length="4.67" shape="1373.29,1355.67 1372.11,1354.84 1371.73,1354.03 1372.15,1353.24 1373.37,1352.47"/>
    </edge>
    <edge id=":10537645319_3" function="internal">
        <lane id=":10537645319_3_0" index="0" allow="pedestrian delivery bicycle" speed="6.71" length="6.07" shape="1367.30,1352.24 1373.37,1352.47"/>
    </edge>
    <edge id=":10537645319_4" function="internal">
        <lane id=":10537645319_4_0" index="0" allow="pedestrian delivery bicycle" speed="6.12" length="7.72" shape="1367.30,1352.24 1368.60,1352.70 1369.49,1353.93 1370.00,1355.92 1370.11,1358.68"/>
    </edge>
    <edge id=":10537645319_5" function="internal">
        <lane id=":10537645319_5_0" index="0" allow="pedestrian delivery bicycle" speed="3.65" length="4.67" shape="1367.30,1352.24 1368.46,1353.10 1368.82,1353.92 1368.38,1354.70 1367.14,1355.43"/>
    </edge>
    <edge id=":10537645320_0" function="internal">
        <lane id=":10537645320_0_0" index="0" allow="pedestrian delivery bicycle" speed="3.65" length="4.67" shape="1372.20,1418.40 1371.42,1419.62 1370.63,1420.03 1369.82,1419.64 1369.00,1418.46"/>
    </edge>
    <edge id=":10537645321_0" function="internal">
        <lane id=":10537645321_0_0" index="0" allow="pedestrian delivery bicycle" speed="3.65" length="4.67" shape="1368.20,1369.44 1368.98,1368.22 1369.78,1367.81 1370.58,1368.20 1371.40,1369.38"/>
    </edge>
    <edge id=":10537645321_1" function="internal">
        <lane id=":10537645321_1_0" index="0" allow="pedestrian delivery bicycle" speed="6.71" length="2.10" shape="1369.78,1368.06 1371.40,1369.38"/>
    </edge>
    <edge id=":10537645322_0" function="internal">
        <lane id=":10537645322_0_0" index="0" allow="pedestrian delivery bicycle" speed="6.71" length="2.02" shape="1403.26,1369.36 1404.85,1368.11"/>
    </edge>
    <edge id=":10537645322_1" function="internal">
        <lane id=":10537645322_1_0" index="0" allow="pedestrian delivery bicycle" speed="3.65" length="4.67" shape="1403.26,1369.36 1404.05,1368.15 1404.85,1367.74 1405.65,1368.14 1406.46,1369.33"/>
    </edge>
    <edge id=":10537645323_0" function="internal">
        <lane id=":10537645323_0_0" index="0" allow="pedestrian delivery bicycle" speed="6.71" length="3.97" shape="1404.87,1367.91 1404.97,1366.73 1405.01,1365.93 1405.01,1365.12 1405.00,1363.94"/>
    </edge>
    <edge id=":10537645324_0" function="internal">
        <lane id=":10537645324_0_0" index="0" allow="pedestrian delivery bicycle" speed="3.65" length="4.67" shape="1406.94,1419.42 1406.15,1420.63 1405.36,1421.04 1404.55,1420.65 1403.74,1419.46"/>
    </edge>
    <edge id=":11350883644_0" function="internal">
        <lane id=":11350883644_0_0" index="0" disallow="tram rail_urban rail rail_electric rail_fast ship container cable_car subway aircraft wheelchair scooter drone" speed="11.18" length="5.10" shape="362.83,1605.80 357.73,1605.82"/>
    </edge>
    <edge id=":11350883644_1" function="internal">
        <lane id=":11350883644_1_0" index="0" disallow="tram rail_urban rail rail_electric rail_fast ship container cable_car subway aircraft wheelchair scooter drone" speed="11.18" length="5.10" shape="357.72,1602.62 362.82,1602.60"/>
    </edge>
    <edge id=":11350883652_0" function="internal">
        <lane id=":11350883652_0_0" index="0" allow="pedestrian delivery bicycle" speed="5.56" length="5.06" shape="250.88,1564.36 245.82,1564.38"/>
    </edge>
    <edge id=":11350883652_1" function="internal">
        <lane id=":11350883652_1_0" index="0" allow="pedestrian delivery bicycle" speed="3.65" length="1.44" shape="250.88,1564.36 249.68,1563.56"/>
    </edge>
    <edge id=":11350883652_4" function="internal">
        <lane id=":11350883652_4_0" index="0" allow="pedestrian delivery bicycle" speed="3.65" length="3.23" shape="249.68,1563.56 249.28,1562.77 249.67,1561.96 250.87,1561.16"/>
    </edge>
    <edge id=":11350883652_2" function="internal">
        <lane id=":11350883652_2_0" index="0" allow="pedestrian delivery bicycle" speed="5.56" length="5.07" shape="245.80,1561.19 250.87,1561.16"/>
    </edge>
    <edge id=":11350883652_3" function="internal">
        <lane id=":11350883652_3_0" index="0" allow="pedestrian delivery bicycle" speed="3.65" length="1.44" shape="245.80,1561.19 247.01,1561.98"/>
    </edge>
    <edge id=":11350883652_5" function="internal">
        <lane id=":11350883652_5_0" index="0" allow="pedestrian delivery bicycle" speed="3.65" length="3.23" shape="247.01,1561.98 247.41,1562.78 247.02,1563.58 245.82,1564.38"/>
    </edge>
    <edge id=":11350883653_0" function="internal">
        <lane id=":11350883653_0_0" index="0" allow="pedestrian delivery bicycle" speed="5.56" length="5.02" shape="251.00,1581.69 245.98,1581.71"/>
    </edge>
    <edge id=":11350883653_1" function="internal">
        <lane id=":11350883653_1_0" index="0" allow="pedestrian delivery bicycle" speed="3.65" length="1.44" shape="251.00,1581.69 249.79,1580.90"/>
    </edge>
    <edge id=":11350883653_4" function="internal">
        <lane id=":11350883653_4_0" index="0" allow="pedestrian delivery bicycle" speed="3.65" length="3.23" shape="249.79,1580.90 249.39,1580.10 249.79,1579.30 250.99,1578.49"/>
    </edge>
    <edge id=":11350883653_2" function="internal">
        <lane id=":11350883653_2_0" index="0" allow="pedestrian delivery bicycle" speed="5.56" length="5.02" shape="245.97,1578.51 250.99,1578.49"/>
    </edge>
    <edge id=":11350883653_3" function="internal">
        <lane id=":11350883653_3_0" index="0" allow="pedestrian delivery bicycle" speed="3.65" length="1.44" shape="245.97,1578.51 247.17,1579.31"/>
    </edge>
    <edge id=":11350883653_5" function="internal">
        <lane id=":11350883653_5_0" index="0" allow="pedestrian delivery bicycle" speed="3.65" length="3.23" shape="247.17,1579.31 247.57,1580.10 247.18,1580.91 245.98,1581.71"/>
    </edge>
    <edge id=":11378669362_0" function="internal">
        <lane id=":11378669362_0_0" index="0" allow="pedestrian delivery bicycle" speed="5.56" length="5.24" shape="399.76,1526.58 394.52,1526.49"/>
    </edge>
    <edge id=":11378669362_1" function="internal">
        <lane id=":11378669362_1_0" index="0" allow="pedestrian delivery bicycle" speed="3.65" length="1.44" shape="399.76,1526.58 398.57,1525.76"/>
    </edge>
    <edge id=":11378669362_4" function="internal">
        <lane id=":11378669362_4_0" index="0" allow="pedestrian delivery bicycle" speed="3.65" length="3.23" shape="398.57,1525.76 398.18,1524.95 398.59,1524.16 399.80,1523.38"/>
    </edge>
    <edge id=":11378669362_2" function="internal">
        <lane id=":11378669362_2_0" index="0" allow="pedestrian delivery bicycle" speed="5.56" length="5.05" shape="394.86,1522.69 395.77,1523.11 397.21,1523.31 398.70,1523.37 399.80,1523.38"/>
    </edge>
    <edge id=":11378669362_3" function="internal">
        <lane id=":11378669362_3_0" index="0" allow="pedestrian delivery bicycle" speed="4.39" length="2.14" shape="394.86,1522.69 396.20,1523.76 396.35,1524.15"/>
    </edge>
    <edge id=":11378669362_5" function="internal">
        <lane id=":11378669362_5_0" index="0" allow="pedestrian delivery bicycle" speed="4.39" length="3.44" shape="396.35,1524.15 396.59,1524.76 396.03,1525.66 394.52,1526.49"/>
    </edge>
    <edge id=":11378669363_0" function="internal">
        <lane id=":11378669363_0_0" index="0" allow="pedestrian delivery bicycle" speed="5.56" length="3.75" shape="545.51,1521.26 549.27,1521.28"/>
    </edge>
    <edge id=":11378730759_0" function="internal" bidi=":11378730759_1">
        <lane id=":11378730759_0_0" index="0" allow="rail" speed="26.82" length="4.49" shape="828.74,1298.65 824.25,1298.69"/>
    </edge>
    <edge id=":11378730759_1" function="internal" bidi=":11378730759_0">
        <lane id=":11378730759_1_0" index="0" allow="rail" speed="26.82" length="4.49" shape="824.25,1298.69 828.74,1298.65"/>
    </edge>
    <edge id=":11378730760_0" function="internal">
        <lane id=":11378730760_0_0" index="0" allow="pedestrian delivery bicycle" speed="5.56" length="4.88" shape="842.73,1311.64 837.85,1311.73"/>
    </edge>
    <edge id=":11378730760_1" function="internal">
        <lane id=":11378730760_1_0" index="0" allow="pedestrian delivery bicycle" speed="3.65" length="1.44" shape="842.73,1311.64 841.52,1310.86"/>
    </edge>
    <edge id=":11378730760_4" function="internal">
        <lane id=":11378730760_4_0" index="0" allow="pedestrian delivery bicycle" speed="3.65" length="3.23" shape="841.52,1310.86 841.10,1310.07 841.49,1309.27 842.67,1308.44"/>
    </edge>
    <edge id=":11378730760_2" function="internal">
        <lane id=":11378730760_2_0" index="0" allow="pedestrian delivery bicycle" speed="5.56" length="4.88" shape="837.80,1308.53 842.67,1308.44"/>
    </edge>
    <edge id=":11378730760_3" function="internal">
        <lane id=":11378730760_3_0" index="0" allow="pedestrian delivery bicycle" speed="3.65" length="1.44" shape="837.80,1308.53 839.01,1309.31"/>
    </edge>
    <edge id=":11378730760_5" function="internal">
        <lane id=":11378730760_5_0" index="0" allow="pedestrian delivery bicycle" speed="3.65" length="3.23" shape="839.01,1309.31 839.42,1310.10 839.04,1310.91 837.85,1311.73"/>
    </edge>
    <edge id=":11378730766_0" function="internal" bidi=":11378730766_1">
        <lane id=":11378730766_0_0" index="0" allow="rail" speed="26.82" length="4.79" shape="842.56,1298.60 837.76,1298.61"/>
    </edge>
    <edge id=":11378730766_1" function="internal" bidi=":11378730766_0">
        <lane id=":11378730766_1_0" index="0" allow="rail" speed="26.82" length="4.79" shape="837.76,1298.61 842.56,1298.60"/>
    </edge>
    <edge id=":11378730909_0" function="internal">
        <lane id=":11378730909_0_0" index="0" allow="pedestrian delivery bicycle" speed="5.56" length="5.06" shape="846.65,1661.62 841.59,1661.58"/>
    </edge>
    <edge id=":11378730909_1" function="internal">
        <lane id=":11378730909_1_0" index="0" allow="pedestrian delivery bicycle" speed="3.65" length="1.44" shape="846.65,1661.62 845.46,1660.81"/>
    </edge>
    <edge id=":11378730909_4" function="internal">
        <lane id=":11378730909_4_0" index="0" allow="pedestrian delivery bicycle" speed="3.65" length="3.23" shape="845.46,1660.81 845.06,1660.01 845.47,1659.21 846.68,1658.42"/>
    </edge>
    <edge id=":11378730909_2" function="internal">
        <lane id=":11378730909_2_0" index="0" allow="pedestrian delivery bicycle" speed="5.56" length="5.06" shape="841.62,1658.38 846.68,1658.42"/>
    </edge>
    <edge id=":11378730909_3" function="internal">
        <lane id=":11378730909_3_0" index="0" allow="pedestrian delivery bicycle" speed="3.65" length="1.44" shape="841.62,1658.38 842.81,1659.19"/>
    </edge>
    <edge id=":11378730909_5" function="internal">
        <lane id=":11378730909_5_0" index="0" allow="pedestrian delivery bicycle" speed="3.65" length="3.23" shape="842.81,1659.19 843.21,1659.99 842.80,1660.79 841.59,1661.58"/>
    </edge>
    <edge id=":11378735273_0" function="internal">
        <lane id=":11378735273_0_0" index="0" allow="pedestrian delivery bicycle" speed="5.56" length="4.50" shape="843.31,1532.87 838.81,1532.82"/>
    </edge>
    <edge id=":11378735276_0" function="internal">
        <lane id=":11378735276_0_0" index="0" allow="pedestrian delivery bicycle" speed="5.56" length="4.49" shape="830.00,1532.71 825.51,1532.65"/>
    </edge>
    <edge id=":11388380344_0" function="internal">
        <lane id=":11388380344_0_0" index="0" allow="pedestrian delivery bicycle" speed="5.56" length="5.07" shape="1583.76,932.77 1583.11,927.74"/>
    </edge>
    <edge id=":11388380344_1" function="internal">
        <lane id=":11388380344_1_0" index="0" allow="pedestrian delivery bicycle" speed="3.65" length="1.44" shape="1583.76,932.77 1584.42,931.49"/>
    </edge>
    <edge id=":11388380344_4" function="internal">
        <lane id=":11388380344_4_0" index="0" allow="pedestrian delivery bicycle" speed="3.65" length="3.23" shape="1584.42,931.49 1585.18,931.01 1586.01,931.32 1586.94,932.43"/>
    </edge>
    <edge id=":11388380344_2" function="internal">
        <lane id=":11388380344_2_0" index="0" allow="pedestrian delivery bicycle" speed="5.56" length="5.21" shape="1586.27,927.27 1586.94,932.43"/>
    </edge>
    <edge id=":11388380344_3" function="internal">
        <lane id=":11388380344_3_0" index="0" allow="pedestrian delivery bicycle" speed="3.65" length="1.44" shape="1586.27,927.27 1585.66,928.57"/>
    </edge>
    <edge id=":11388380344_5" function="internal">
        <lane id=":11388380344_5_0" index="0" allow="pedestrian delivery bicycle" speed="3.65" length="3.23" shape="1585.66,928.57 1584.93,929.09 1584.08,928.81 1583.11,927.74"/>
    </edge>
    <edge id=":11398991936_0" function="internal">
        <lane id=":11398991936_0_0" index="0" disallow="tram rail_urban rail rail_electric rail_fast ship container cable_car subway aircraft wheelchair scooter drone" speed="11.18" length="10.72" shape="825.97,1172.06 824.67,1174.84 824.04,1177.01 823.75,1179.28 823.51,1182.37"/>
    </edge>
    <edge id=":11398991936_1" function="internal">
        <lane id=":11398991936_1_0" index="0" disallow="tram rail_urban rail rail_electric rail_fast ship container cable_car subway aircraft wheelchair scooter drone" speed="11.18" length="10.67" shape="820.43,1180.78 820.71,1177.71 821.08,1175.48 821.80,1173.35 823.13,1170.58"/>
    </edge>
    <edge id=":11398991949_0" function="internal">
        <lane id=":11398991949_0_0" index="0" allow="pedestrian delivery bicycle" speed="5.56" length="4.64" shape="841.66,1072.46 837.02,1072.53"/>
    </edge>
    <edge id=":11398991949_1" function="internal">
        <lane id=":11398991949_1_0" index="0" allow="pedestrian delivery bicycle" speed="3.65" length="1.44" shape="841.66,1072.46 840.45,1071.68"/>
    </edge>
    <edge id=":11398991949_4" function="internal">
        <lane id=":11398991949_4_0" index="0" allow="pedestrian delivery bicycle" speed="3.65" length="3.23" shape="840.45,1071.68 840.04,1070.88 840.42,1070.08 841.61,1069.26"/>
    </edge>
    <edge id=":11398991949_2" function="internal">
        <lane id=":11398991949_2_0" index="0" allow="pedestrian delivery bicycle" speed="5.56" length="4.63" shape="836.98,1069.33 841.61,1069.26"/>
    </edge>
    <edge id=":11398991949_3" function="internal">
        <lane id=":11398991949_3_0" index="0" allow="pedestrian delivery bicycle" speed="3.65" length="1.44" shape="836.98,1069.33 838.19,1070.11"/>
    </edge>
    <edge id=":11398991949_5" function="internal">
        <lane id=":11398991949_5_0" index="0" allow="pedestrian delivery bicycle" speed="3.65" length="3.23" shape="838.19,1070.11 838.60,1070.91 838.21,1071.71 837.02,1072.53"/>
    </edge>
    <edge id=":11398991952_0" function="internal">
        <lane id=":11398991952_0_0" index="0" allow="pedestrian delivery bicycle" speed="5.56" length="5.26" shape="780.85,935.94 780.72,930.68"/>
    </edge>
    <edge id=":11398991952_1" function="internal">
        <lane id=":11398991952_1_0" index="0" allow="pedestrian delivery bicycle" speed="3.65" length="1.44" shape="780.85,935.94 781.62,934.72"/>
    </edge>
    <edge id=":11398991952_4" function="internal">
        <lane id=":11398991952_4_0" index="0" allow="pedestrian delivery bicycle" speed="3.65" length="3.23" shape="781.62,934.72 782.42,934.31 783.22,934.69 784.05,935.87"/>
    </edge>
    <edge id=":11398991952_2" function="internal">
        <lane id=":11398991952_2_0" index="0" allow="pedestrian delivery bicycle" speed="5.56" length="5.30" shape="783.92,930.57 784.05,935.87"/>
    </edge>
    <edge id=":11398991952_3" function="internal">
        <lane id=":11398991952_3_0" index="0" allow="pedestrian delivery bicycle" speed="3.65" length="1.44" shape="783.92,930.57 783.15,931.80"/>
    </edge>
    <edge id=":11398991952_5" function="internal">
        <lane id=":11398991952_5_0" index="0" allow="pedestrian delivery bicycle" speed="3.65" length="3.23" shape="783.15,931.80 782.37,932.22 781.55,931.85 780.72,930.68"/>
    </edge>
    <edge id=":11398991954_0" function="internal">
        <lane id=":11398991954_0_0" index="0" allow="pedestrian delivery bicycle" speed="5.56" length="7.59" shape="858.55,1136.28 855.79,1136.12 853.81,1135.59 852.63,1134.71 852.23,1133.48"/>
    </edge>
    <edge id=":11398991954_1" function="internal">
        <lane id=":11398991954_1_0" index="0" allow="pedestrian delivery bicycle" speed="3.65" length="1.44" shape="858.55,1136.28 857.35,1135.49"/>
    </edge>
    <edge id=":11398991954_4" function="internal">
        <lane id=":11398991954_4_0" index="0" allow="pedestrian delivery bicycle" speed="3.65" length="3.23" shape="857.35,1135.49 856.95,1134.69 857.34,1133.89 858.54,1133.08"/>
    </edge>
    <edge id=":11398991954_2" function="internal">
        <lane id=":11398991954_2_0" index="0" allow="pedestrian delivery bicycle" speed="4.65" length="4.11" shape="855.43,1131.15 855.63,1132.00 856.21,1132.61 857.18,1132.97 858.54,1133.08"/>
    </edge>
    <edge id=":11398991954_3" function="internal">
        <lane id=":11398991954_3_0" index="0" allow="pedestrian delivery bicycle" speed="3.93" length="2.60" shape="855.43,1131.15 855.50,1132.93 855.13,1133.66"/>
    </edge>
    <edge id=":11398991954_5" function="internal">
        <lane id=":11398991954_5_0" index="0" allow="pedestrian delivery bicycle" speed="3.93" length="3.18" shape="855.13,1133.66 854.99,1133.92 853.90,1134.10 852.23,1133.48"/>
    </edge>
    <edge id=":11398991959_0" function="internal">
        <lane id=":11398991959_0_0" index="0" disallow="tram rail_urban rail rail_electric rail_fast ship container cable_car subway aircraft wheelchair scooter drone" speed="11.18" length="4.09" shape="843.90,1160.33 839.81,1160.33"/>
    </edge>
    <edge id=":11398991960_0" function="internal">
        <lane id=":11398991960_0_0" index="0" disallow="tram rail_urban rail rail_electric rail_fast ship container cable_car subway aircraft wheelchair scooter drone" speed="11.18" length="4.46" shape="840.04,1154.33 844.50,1154.27"/>
    </edge>
    <edge id=":11398991961_0" function="internal">