<configuration>
    <input>
        <net-file value="map.net.xml"/>
        <route-files value="trucks.rou.xml"/>
    </input>
</configuration>
